<?xml version="1.0" encoding="iso-8859-1"?>

<configuration xmlns:xsi="http://www.w3.org/2001/XMLSchema-instance" xsi:noNamespaceSchemaLocation="http://sumo.sf.net/xsd/sumoConfiguration.xsd">

     <input>
        <net-file value="rl.net.xml"/>
        <route-files value="rl_routes.rou.xml"/>
        <gui-settings-file value="rl.settings.xml" />
        <additional-files value="rl.add.xml" />
    </input>
    <time>
        <begin value="0"/>
        <end value="10000"/>
    </time>

</configuration>